*Heading
** Job name: 25 Model name: 25
** Generated by: Abaqus/CAE 2023
*Preprint, echo=NO, model=NO, history=NO, contact=NO
**
** PARTS
**
*Part, name=Part-1
*End Part
**  
**
** ASSEMBLY
**
*Assembly, name=Assembly
**  
*Instance, name=Part-1-1, part=Part-1
-6.,0.,0.
*Node
      1,   6.74170351,       -0.125
      2,   6.74170351,        0.125
      3,    5.9000001,  0.349999994
      4,   6.49166584,  0.100373231
      5,   6.49170351, -0.100376934
      6,   6.24170351, -0.0757538676
      7,    5.9000001, -0.100000001
      8,   6.24170351, 0.0757538676
      9,    5.9000001, -0.349999994
     10,    5.9000001,        0.875
     11,    5.9000001,  0.612500012
     12,    5.9000001,  0.100000001
     13,   5.99762964, 0.0216439608
     14,   5.99762964, -0.0216439608
     15,    31.491703,        0.875
     16,    31.241703,        0.875
     17,    30.991703,        0.875
     18,    30.741703,        0.875
     19,    30.491703,        0.875
     20,    30.241703,        0.875
** ... 2761 like lines cut
*Element, type=CPS4
1, 1, 2, 4, 5
2, 5, 4, 8, 6
3, 14,  6,  8, 13
 4,   9,   7, 274, 284
 5, 284, 274, 275, 283
 6, 283, 275, 276, 282
 7, 282, 276, 277, 347
 8, 347, 277, 278, 355
 9, 355, 278, 350, 354
10, 354, 350, 342, 281
11, 281, 342, 352, 346
12, 346, 352, 353, 349
13, 349, 353, 341, 345
14, 345, 341, 348, 351
15, 351, 348, 279, 280
16, 280, 279, 340, 337
17, 339, 285, 356, 298
18, 285, 286, 357, 356
19, 286, 287, 358, 357
20, 287, 288, 359, 358
** ... 2690 like lines cut
*End Instance
**  
*End Assembly
** 
** MATERIALS
** 
*Material, name=steel
*Elastic
 7.04e+06, 0.3
** ----------------------------------------------------------------
** 
** STEP: Step-1
** 
*Step, name=Step-1, nlgeom=NO
*Static
1., 1., 1e-05, 1.
** 
** OUTPUT REQUESTS
** 
*Restart, write, frequency=0
** 
** FIELD OUTPUT: F-Output-1
** 
*Output, field, variable=PRESELECT
** 
** HISTORY OUTPUT: H-Output-1
** 
*Output, history, variable=PRESELECT
*End Step
